92
Fragment with ions separated into regions from construct
Al            8.485164     1.232930     9.244248     0.900000
O            10.321211     1.385305     9.498626    -0.600000
O             7.910144     1.069524    10.846408    -0.600000
O             8.215703     2.830081     8.617743    -0.600000
O             8.207338    -0.066463     8.177807    -0.600000
H            10.525676     2.366973     9.748444     0.300000
Si            7.607258     3.345108     7.239771     1.200000
O             6.044776     2.930313     7.099207    -0.300000
O             8.410403     2.615538     6.035823    -0.300000
O             7.871090     4.940647     7.174299    -0.600000
Si           11.530526     0.519379     8.793732     1.200000
O            11.524472     0.980224     7.248804    -0.300000
O             7.780921    -2.760169     8.049630    -0.300000
O             8.541191    -1.466398     5.936995    -0.300000
O             6.084040    -1.098918     6.906331    -0.300000
Si            6.578732     0.331526    11.299653     1.200000
O             6.407807     0.522741    12.890300    -0.600000
O             6.752066    -1.237521    10.918861    -0.300000
O             5.322366     0.991688    10.524785    -0.300000
O            11.101068    -0.994924     9.096997    -0.300000
O            12.878016     0.985033     9.483433    -0.600000
Si            7.656736    -1.309777     7.307844     1.200000
O            10.529879     3.832737     9.978538     0.000000
H            10.555251     4.153400    10.882807     0.000000
H             9.664158     4.068223     9.614897     0.000000
Si            8.611949     8.573638     9.222518     1.200000
Si            6.520045     9.403342    11.236922     1.200000
Si            5.601083     1.004943    14.191171     1.200000
Si            5.633515     8.885171    14.175941     1.200000
Si           11.459516     9.331760     8.826045     1.200000
Si           13.991987     8.824921    10.625170     1.200000
Si           13.998382     1.162794    10.633183     1.200000
Si           13.563179     7.278256    15.557827     1.200000
Si           13.600961     2.734700    15.573423     1.200000
Si           14.362548     6.563684    12.641274     1.200000
Si           14.381001     3.448442    12.624176     1.200000
Si            7.591031     6.508434     7.246922     1.200000
O            10.205891     8.568621     9.492081    -0.600000
O             7.891158     8.781650    10.650613    -0.600000
O             8.202283     7.128370     8.614875    -0.600000
O             8.257551     9.737748     8.148086    -0.300000
O             6.473538     9.096605    12.805418    -0.600000
O            13.373330     8.865109    15.815920    -0.300000
O            13.433377     1.146311    15.857870    -0.300000
O             6.555264    10.986471    10.941377    -0.300000
O            15.408089     8.676510     9.836334    -0.300000
O            15.422149     1.322576     9.866736    -0.300000
O             5.300161     8.652569    10.490244    -0.300000
O             6.012200     2.533310    14.604841    -0.600000
O             5.992302     7.401030    14.728174    -0.600000
O             4.009454     0.893358    13.835808    -0.300000
O             4.044443     9.063355    13.809028    -0.300000
O             6.113417     0.150684    15.503000    -0.300000
O            13.832819    10.074019    11.654089    -0.300000
O            13.801324    -0.066454    11.677886    -0.300000
O             6.224376     9.922040    15.297473    -0.300000
O            11.501132     8.799642     7.296309    -0.300000
O            12.811665     8.923415     9.540437    -0.600000
O            11.149547    10.901942     9.008941    -0.300000
O            13.765987     7.419930    11.405363    -0.600000
O            13.747113     2.573979    11.401859    -0.600000
O            13.505139     6.900393    13.979417    -0.600000
O            13.566224     3.071035    13.981126    -0.600000
O            14.181031     5.005280    12.229594    -0.600000
O            15.902761     7.012688    12.968344    -0.300000
O            15.947976     3.069742    12.883128    -0.300000
O             6.016695     6.847781     7.199357    -0.300000
O             8.401147     7.282261     6.069359    -0.300000
O             6.028471     4.948681    15.551735    -0.600000
Si           11.466230     6.536158    17.642943     1.200000
Si           11.441614     3.494482    17.620928     1.200000
Si            8.537256     2.424346    17.775729     1.200000
Si            8.515860     7.482352    17.848579     1.200000
Si            6.047136     3.387879    15.991030     1.200000
Si            6.056248     6.481062    16.068529     1.200000
O            12.321221     7.336186    18.795403    -0.300000
O            12.200364     2.664012    18.811769    -0.300000
O             8.500917     0.821577    17.561511    -0.300000
O             8.218305     9.075119    17.713928    -0.300000
O            10.012055     7.173600    17.292265    -0.600000
O             9.973639     2.942401    17.211450    -0.600000
O            12.308163     6.516429    16.247125    -0.600000
O            12.334262     3.485890    16.253477    -0.600000
O            11.324484     5.013996    18.193537    -0.600000
O             4.770769     3.081093    16.944404    -0.300000
O            14.976769     6.701800    16.146041    -0.300000
O            14.993172     3.367802    16.160994    -0.300000
O             4.785437     6.766812    17.035896    -0.300000
O             8.482792     2.868796    19.345444    -0.300000
O             8.515420     6.904558    19.379245    -0.300000
O             7.389724     3.116131    16.870227    -0.600000
O             7.430171     6.720671    16.913740    -0.600000
